# File generated by Flopy version 3.10.0 on 06/09/2026 at 19:03:27.
BEGIN options
END options

BEGIN timing
  TDIS6  vrf.tdis
END timing

BEGIN models
  gwf6  vrf.nam  vrf
END models

BEGIN exchanges
END exchanges

BEGIN solutiongroup  1
  ims6  vrf.ims  vrf
END solutiongroup  1

