# File generated by Flopy version 3.10.0 on 06/09/2026 at 19:03:27.
BEGIN options
  SAVE_FLOWS
END options

BEGIN packages
  DIS6  vrf.dis  dis
  IC6  vrf.ic  ic
  NPF6  vrf.npf  npf
  CHD6  vrf.chd  chd_0
  OC6  vrf.oc  oc
END packages

