# File generated by Flopy version 3.10.0 on 06/09/2026 at 19:03:27.
BEGIN options
END options

BEGIN griddata
  strt
    CONSTANT       5.00000000
END griddata

