# File generated by Flopy version 3.10.0 on 06/09/2026 at 19:03:27.
BEGIN options
  BUDGET  FILEOUT  vrf.cbc
  HEAD  FILEOUT  vrf.hds
END options

BEGIN period  1
  SAVE  HEAD  ALL
  SAVE  BUDGET  ALL
END period  1

