# File generated by Flopy version 3.10.0 on 06/09/2026 at 19:01:28.
BEGIN options
END options

BEGIN dimensions
  MAXBOUND  80
END dimensions

BEGIN period  1
  1 1 1 4.00000000E+00
  1 1 40 0.00000000E+00
  1 2 1 4.00000000E+00
  1 2 40 0.00000000E+00
  1 3 1 4.00000000E+00
  1 3 40 0.00000000E+00
  1 4 1 4.00000000E+00
  1 4 40 0.00000000E+00
  1 5 1 4.00000000E+00
  1 5 40 0.00000000E+00
  1 6 1 4.00000000E+00
  1 6 40 0.00000000E+00
  1 7 1 4.00000000E+00
  1 7 40 0.00000000E+00
  1 8 1 4.00000000E+00
  1 8 40 0.00000000E+00
  1 9 1 4.00000000E+00
  1 9 40 0.00000000E+00
  1 10 1 4.00000000E+00
  1 10 40 0.00000000E+00
  1 11 1 4.00000000E+00
  1 11 40 0.00000000E+00
  1 12 1 4.00000000E+00
  1 12 40 0.00000000E+00
  1 13 1 4.00000000E+00
  1 13 40 0.00000000E+00
  1 14 1 4.00000000E+00
  1 14 40 0.00000000E+00
  1 15 1 4.00000000E+00
  1 15 40 0.00000000E+00
  1 16 1 4.00000000E+00
  1 16 40 0.00000000E+00
  1 17 1 4.00000000E+00
  1 17 40 0.00000000E+00
  1 18 1 4.00000000E+00
  1 18 40 0.00000000E+00
  1 19 1 4.00000000E+00
  1 19 40 0.00000000E+00
  1 20 1 4.00000000E+00
  1 20 40 0.00000000E+00
  1 21 1 4.00000000E+00
  1 21 40 0.00000000E+00
  1 22 1 4.00000000E+00
  1 22 40 0.00000000E+00
  1 23 1 4.00000000E+00
  1 23 40 0.00000000E+00
  1 24 1 4.00000000E+00
  1 24 40 0.00000000E+00
  1 25 1 4.00000000E+00
  1 25 40 0.00000000E+00
  1 26 1 4.00000000E+00
  1 26 40 0.00000000E+00
  1 27 1 4.00000000E+00
  1 27 40 0.00000000E+00
  1 28 1 4.00000000E+00
  1 28 40 0.00000000E+00
  1 29 1 4.00000000E+00
  1 29 40 0.00000000E+00
  1 30 1 4.00000000E+00
  1 30 40 0.00000000E+00
  1 31 1 4.00000000E+00
  1 31 40 0.00000000E+00
  1 32 1 4.00000000E+00
  1 32 40 0.00000000E+00
  1 33 1 4.00000000E+00
  1 33 40 0.00000000E+00
  1 34 1 4.00000000E+00
  1 34 40 0.00000000E+00
  1 35 1 4.00000000E+00
  1 35 40 0.00000000E+00
  1 36 1 4.00000000E+00
  1 36 40 0.00000000E+00
  1 37 1 4.00000000E+00
  1 37 40 0.00000000E+00
  1 38 1 4.00000000E+00
  1 38 40 0.00000000E+00
  1 39 1 4.00000000E+00
  1 39 40 0.00000000E+00
  1 40 1 4.00000000E+00
  1 40 40 0.00000000E+00
END period  1

BEGIN period  2
  1 1 1 4.00000000E+00
  1 1 40 0.00000000E+00
  1 2 1 4.00000000E+00
  1 2 40 0.00000000E+00
  1 3 1 4.00000000E+00
  1 3 40 0.00000000E+00
  1 4 1 4.00000000E+00
  1 4 40 0.00000000E+00
  1 5 1 4.00000000E+00
  1 5 40 0.00000000E+00
  1 6 1 4.00000000E+00
  1 6 40 0.00000000E+00
  1 7 1 4.00000000E+00
  1 7 40 0.00000000E+00
  1 8 1 4.00000000E+00
  1 8 40 0.00000000E+00
  1 9 1 4.00000000E+00
  1 9 40 0.00000000E+00
  1 10 1 4.00000000E+00
  1 10 40 0.00000000E+00
  1 11 1 4.00000000E+00
  1 11 40 0.00000000E+00
  1 12 1 4.00000000E+00
  1 12 40 0.00000000E+00
  1 13 1 4.00000000E+00
  1 13 40 0.00000000E+00
  1 14 1 4.00000000E+00
  1 14 40 0.00000000E+00
  1 15 1 4.00000000E+00
  1 15 40 0.00000000E+00
  1 16 1 4.00000000E+00
  1 16 40 0.00000000E+00
  1 17 1 4.00000000E+00
  1 17 40 0.00000000E+00
  1 18 1 4.00000000E+00
  1 18 40 0.00000000E+00
  1 19 1 4.00000000E+00
  1 19 40 0.00000000E+00
  1 20 1 4.00000000E+00
  1 20 40 0.00000000E+00
  1 21 1 4.00000000E+00
  1 21 40 0.00000000E+00
  1 22 1 4.00000000E+00
  1 22 40 0.00000000E+00
  1 23 1 4.00000000E+00
  1 23 40 0.00000000E+00
  1 24 1 4.00000000E+00
  1 24 40 0.00000000E+00
  1 25 1 4.00000000E+00
  1 25 40 0.00000000E+00
  1 26 1 4.00000000E+00
  1 26 40 0.00000000E+00
  1 27 1 4.00000000E+00
  1 27 40 0.00000000E+00
  1 28 1 4.00000000E+00
  1 28 40 0.00000000E+00
  1 29 1 4.00000000E+00
  1 29 40 0.00000000E+00
  1 30 1 4.00000000E+00
  1 30 40 0.00000000E+00
  1 31 1 4.00000000E+00
  1 31 40 0.00000000E+00
  1 32 1 4.00000000E+00
  1 32 40 0.00000000E+00
  1 33 1 4.00000000E+00
  1 33 40 0.00000000E+00
  1 34 1 4.00000000E+00
  1 34 40 0.00000000E+00
  1 35 1 4.00000000E+00
  1 35 40 0.00000000E+00
  1 36 1 4.00000000E+00
  1 36 40 0.00000000E+00
  1 37 1 4.00000000E+00
  1 37 40 0.00000000E+00
  1 38 1 4.00000000E+00
  1 38 40 0.00000000E+00
  1 39 1 4.00000000E+00
  1 39 40 0.00000000E+00
  1 40 1 4.00000000E+00
  1 40 40 0.00000000E+00
END period  2

