# File generated by Flopy version 3.10.0 on 06/09/2026 at 19:01:28.
BEGIN options
  LENGTH_UNITS  meters
  XORIGIN  4.12407617E+05
  YORIGIN  2.94585774E+06
END options

BEGIN dimensions
  NLAY  1
  NROW  40
  NCOL  40
END dimensions

BEGIN griddata
  delr
    CONSTANT      50.00000000
  delc
    CONSTANT      50.00000000
  top
    CONSTANT       0.00000000
  botm
    CONSTANT     -30.00000000
END griddata

