# File generated by Flopy version 3.10.0 on 06/09/2026 at 19:01:28.
BEGIN options
  SAVE_FLOWS
END options

BEGIN griddata
  icelltype
    CONSTANT  0
  k
    CONSTANT       8.64000000
END griddata

