# File generated by Flopy version 3.10.0 on 06/09/2026 at 19:01:28.
BEGIN options
  SAVE_FLOWS
END options

BEGIN packages
  DIS6  gwf_model.dis  dis
  IC6  gwf_model.ic  ic
  NPF6  gwf_model.npf  npf
  CHD6  gwf_model.chd  chd_0
  OC6  gwf_model.oc  oc
END packages

