# File generated by Flopy version 3.10.0 on 06/09/2026 at 19:01:28.
BEGIN options
  BUDGET  FILEOUT  gwf_model.cbc
  HEAD  FILEOUT  gwf_model.hds
END options

BEGIN period  1
  SAVE  HEAD  LAST
  SAVE  BUDGET  LAST
END period  1

