# File generated by Flopy version 3.10.0 on 06/09/2026 at 19:01:28.
BEGIN options
  BUDGET  FILEOUT  gwt_model.cbc
  CONCENTRATION  FILEOUT  gwt_model.ucn
END options

BEGIN period  1
  SAVE  CONCENTRATION  LAST
  SAVE  BUDGET  LAST
END period  1

