# File generated by Flopy version 3.10.0 on 06/09/2026 at 19:01:28.
BEGIN options
END options

BEGIN dimensions
  MAXBOUND  1
END dimensions

BEGIN period  1
END period  1

BEGIN period  2
  1 21 21  8.64000000E+05
END period  2

