# File generated by Flopy version 3.10.0 on 06/09/2026 at 19:01:28.
BEGIN options
  SAVE_FLOWS
END options

BEGIN packages
  DIS6  gwt_model.dis  dis
  IC6  gwt_model.ic  ic
  ADV6  gwt_model.adv  adv
  DSP6  gwt_model.dsp  dsp
  MST6  gwt_model.mst  mst
  SRC6  gwt_model.src  src_0
  SSM6  gwt_model.ssm  ssm
  OC6  gwt_model.oc  oc
END packages

