# File generated by Flopy version 3.10.0 on 06/09/2026 at 19:01:28.
BEGIN options
END options

BEGIN griddata
  strt
    CONSTANT       0.00000000
END griddata

