# File generated by Flopy version 3.10.0 on 06/09/2026 at 19:01:28.
BEGIN options
END options

BEGIN timing
  TDIS6  mfsim.tdis
END timing

BEGIN models
  gwf6  gwf_model.nam  gwf_model
  gwt6  gwt_model.nam  gwt_model
END models

BEGIN exchanges
  GWF6-GWT6  gwfgwt.exg  gwf_model  gwt_model
END exchanges

BEGIN solutiongroup  1
  ims6  gwf_model.ims  gwf_model
  ims6  gwt_model.ims  gwt_model
END solutiongroup  1

